   Input file: C:\PHREEQC\my tests\L-S_5.pqi
  Output file: C:\PHREEQC\my tests\L-S_5_lowCO2.pqo
Database file: C:\Program Files (x86)\USGS\Phreeqc Interactive 3.8.6-17100\database\CEMDATA18-31-03-2022-phaseVol.dat

------------------
Reading data base.
------------------

	SOLUTION_MASTER_SPECIES 
	SOLUTION_SPECIES 
	PHASES 
------------------------------------
Reading input data for simulation 1.
------------------------------------

	DATABASE C:\Program Files (x86)\USGS\Phreeqc Interactive 3.8.6-17100\database\CEMDATA18-31-03-2022-phaseVol.dat
	SOLUTION 1
	    temp      25.00
	    pH        13.10
	    units     mol/l
	    Na        0.50000
	    Si        0.00031
	    Al        0.00073
	    Ca        0.00233
	SOLUTION 2
	    temp      25.00
	    pH        13.05
	    units     mol/l
	    Na        0.50000
	    Si        0.00183
	    Al        0.00486
	    Ca        0.00020
	SOLUTION 3
	    temp      25.00
	    pH        13.29
	    units     mol/l
	    Na        0.50000
	    Si        0.00270
	    Al        0.01275
	    Ca        0.00044
	EQUILIBRIUM_PHASES 1
	    CO2(g)    -3.37   0.001
	EQUILIBRIUM_PHASES 2
	    CO2(g)    -3.37   0.001
	EQUILIBRIUM_PHASES 3
	    CO2(g)    -3.37   0.001
	USE solution 1
	USE equilibrium_phases 1
	END
-------------------------------------------
Beginning of initial solution calculations.
-------------------------------------------

Initial solution 1.	

-----------------------------Solution composition------------------------------

	Elements           Molality       Moles

	Al                7.402e-04   7.402e-04
	Ca                2.363e-03   2.363e-03
	Na                5.070e-01   5.070e-01
	Si                3.143e-04   3.143e-04

----------------------------Description of solution----------------------------

                                       pH  =  13.100    
                                       pe  =   4.000    
                        Activity of water  =   0.989
                 Ionic strength (mol/kgw)  =   3.169e-01
                       Mass of water (kg)  =   1.000e+00
                 Total alkalinity (eq/kg)  =   1.784e-01
                         Temperature (oC)  =  25.00
                  Electrical balance (eq)  =   3.326e-01
 Percent error, 100*(Cat-|An|)/(Cat+|An|)  =  52.69
                               Iterations  =   7
                                  Total H  = 1.111946e+02
                                  Total O  = 5.568862e+01

----------------------------Distribution of species----------------------------

                                               Log       Log       Log    mole V
   Species          Molality    Activity  Molality  Activity     Gamma   cm3/mol

   OH-             1.484e-01   1.245e-01    -0.829    -0.905    -0.076     (0)  
   H+              9.716e-14   7.943e-14   -13.013   -13.100    -0.087      0.00
   H2O             5.551e+01   9.888e-01     1.744    -0.005     0.000     18.07
Al            7.402e-04
   AlO2-           7.394e-04   5.298e-04    -3.131    -3.276    -0.145     (0)  
   AlSiO5-3        8.223e-07   2.819e-08    -6.085    -7.550    -1.465     (0)  
   AlO2H           1.177e-10   1.177e-10    -9.929    -9.929     0.000     (0)  
   AlO+            9.096e-18   6.518e-18   -17.041   -17.186    -0.145     (0)  
   Al(OH)+2        9.788e-25   2.243e-25   -24.009   -24.649    -0.640     (0)  
   AlHSiO3+2       4.780e-30   1.095e-30   -29.321   -29.960    -0.640     (0)  
   Al+3            2.050e-32   1.633e-33   -31.688   -32.787    -1.099     (0)  
Ca            2.363e-03
   Ca+2            1.198e-03   3.320e-04    -2.922    -3.479    -0.557     (0)  
   Ca(OH)+         9.568e-04   6.856e-04    -3.019    -3.164    -0.145     (0)  
   CaSiO3          2.075e-04   2.075e-04    -3.683    -3.683     0.000     (0)  
   Ca(HSiO3)+      1.961e-07   1.405e-07    -6.708    -6.852    -0.145     (0)  
H(0)          9.885e-38
   H2              4.943e-38   4.943e-38   -37.306   -37.306     0.000     (0)  
Na            5.070e-01
   Na+             4.785e-01   3.462e-01    -0.320    -0.461    -0.141     (0)  
   NaOH            2.847e-02   2.847e-02    -1.546    -1.546     0.000     (0)  
O(0)          5.073e-18
   O2              2.536e-18   2.536e-18   -17.596   -17.596     0.000     (0)  
Si            3.143e-04
   CaSiO3          2.075e-04   2.075e-04    -3.683    -3.683     0.000     (0)  
   SiO3-2          6.851e-05   1.570e-05    -4.164    -4.804    -0.640     (0)  
   HSiO3-          3.726e-05   2.670e-05    -4.429    -4.573    -0.145     (0)  
   AlSiO5-3        8.223e-07   2.819e-08    -6.085    -7.550    -1.465     (0)  
   Ca(HSiO3)+      1.961e-07   1.405e-07    -6.708    -6.852    -0.145     (0)  
   SiO2            1.383e-08   1.383e-08    -7.859    -7.859     0.000     (0)  
   Si4O10-4        1.877e-13   4.501e-16   -12.726   -15.347    -2.620     (0)  
   AlHSiO3+2       4.780e-30   1.095e-30   -29.321   -29.960    -0.640     (0)  

------------------------------Saturation indices-------------------------------

  Phase               SI** log IAP   log K(298 K,   1 atm)

  5CA               0.54     16.43   15.89  (CaO)1.25(SiO2)1(Al2O3)0.125(H2O)1.625
  5CNA             -0.49     22.75   23.24  (CaO)1.25(SiO2)1(Al2O3)0.125(Na2O)0.25(H2O)1.375
  AlOHam           -2.62    -16.38  -13.76  Al(OH)3
  AlOHmic          -1.71    -16.38  -14.67  Al(OH)3
  Amor-Sl          -5.15     -7.86   -2.71  SiO2
  C12A7          -123.83     43.37  167.20  (CaO)12(Al2O3)7
  C2AH65           -0.35     29.03   29.38  Ca2Al(OH)7(H2O)3
  C2AH7.5          -1.56     12.65   14.21  Ca2Al2(OH)10(H2O)2.5
  C2S              -0.89     37.57   38.47  (CaO)2SiO2
  C3A             -35.28     35.40   70.68  (CaO)3Al2O3
  C3AH6            -0.13     35.37   35.51  Ca3Al2O6(H2O)6
  C3AS0.41H5.18     3.22     32.15   28.94  Ca3Al2O6(SiO2)0.41(H2O)5.18
  C3AS0.84H4.32     2.99     28.78   25.79  AlCa3AlO6(SiO2)0.84(H2O)4.32
  C3S             -12.97     60.29   73.26  (CaO)3SiO2
  C4AH11           -2.43     58.06   60.49  Ca4Al2(OH)14(H2O)4
  C4AH13           -0.71     58.05   58.76  Ca4Al2(OH)14(H2O)6
  C4AH19           -0.54     58.03   58.56  Ca4Al2(OH)14(H2O)12
  CA               -9.72    -10.03   -0.31  CaOAl2O3
  CA2             -12.71    -42.78  -30.06  CaO(Al2O3)2
  CAH10            -2.49    -10.08   -7.59  CaOAl2O3(H2O)10
  chabazite       -15.70    -41.50  -25.80  Ca(Al2Si4)O12(H2O)6
  CSH3T-T2C         0.93     26.20   25.27  ((CaO)0.75(SiO2)0.5(H2O)1.25)2
  CSH3T-T5C         0.42     18.56   18.14  ((CaO)1(SiO2)1(H2O)2)1.25
  CSH3T-TobH       -1.62     10.92   12.53  (CaO)1(SiO2)1.5(H2O)2.5
  CSHQ-JenD         0.09     28.82   28.73  (CaO)1.5(SiO2)0.6667(H2O)2.5
  CSHQ-JenH         0.24     22.42   22.18  (CaO)1.3333(SiO2)1(H2O)2.1667
  CSHQ-TobD         0.03     13.68   13.66  ((CaO)1.25(SiO2)1(H2O)2.75)0.6667
  CSHQ-TobH        -1.01      7.28    8.29  (CaO)0.6667(SiO2)1(H2O)1.5
  ECSH1-NaSH       -0.67      4.74    5.41  ((NaOH)2.5SiO2H2O)0.2
  ECSH1-SH         -5.26     -7.86   -2.60  (SiO2H2O)1
  ECSH1-TobCa       0.04     11.06   11.02  ((Ca(OH)2)0.8333SiO2H2O)1
  ECSH2-JenCa       0.39     17.99   17.60  ((Ca(OH)2)1.6667SiO2H2O)0.6
  ECSH2-NaSH       -1.17      4.74    5.91  ((NaOH)2.5SiO2H2O)0.2
  ECSH2-TobCa       0.04     11.06   11.02  ((Ca(OH)2)0.8333SiO2H2O)1
  Gbs              -1.26    -16.38  -15.12  Al(OH)3
  H2(g)           -34.20    -34.20   -0.00  H2
  H2O(g)           -1.49     -0.00    1.49  H2O
  INFCA            -0.70      8.26    8.96  (CaO)1(SiO2)1.1875(Al2O3)0.15625(H2O)1.65625
  INFCN             0.06     18.82   18.76  (CaO)1(SiO2)1.5(Na2O)0.3125(H2O)1.1875
  INFCNA           -0.28     16.95   17.23  (CaO)1(SiO2)1.1875(Al2O3)0.15625(Na2O)0.34375(H2O)1.3125
  Jennite           0.67     29.99   29.32  (SiO2)1(CaO)1.666667(H2O)2.1
  Kln             -10.15    -48.48  -38.32  Al2Si2O5(OH)4
  Lim              -9.87     22.72   32.59  CaO
  Na2O            -42.16     25.27   67.44  Na2O
  NaSiOH           -0.90      4.74    5.65  ((NaOH)2.5SiO2H2O)0.2
  natrolite        -0.86    -31.06  -30.20  Na2(Al2Si3)O10(H2O)2
  O2(g)           -14.72     68.39   83.11  O2
  Portlandite      -0.09     22.71   22.80  Ca(OH)2
  Qtz              -4.11     -7.86   -3.75  SiO2
  straetlingite     0.67      4.79    4.11  Ca2Al2SiO7(H2O)8
  straetlingite5_5  -2.30      4.80    7.10  Ca2Al2SiO7(H2O)5.5
  straetlingite7   -0.02      4.79    4.81  Ca2Al2SiO7(H2O)7
  T2C-CNASHss       0.64     26.20   25.57  (CaO)1.5(SiO2)1(H2O)2.5
  T5C-CNASHss       0.11     18.56   18.45  (CaO)1.25(SiO2)1.25(H2O)2.5
  Tob-I            -0.19     26.55   26.75  (SiO2)2.4(CaO)2(H2O)3.2
  Tob-II           -0.08     11.06   11.15  (SiO2)1(CaO)0.833333(H2O)1.333333
  TobH-CNASHss     -1.88     10.92   12.80  (CaO)1(SiO2)1.5(H2O)2.5
  zeoliteP_Ca      -5.47    -25.77  -20.30  Ca(Al2Si2)O8(H2O)4.5
  zeoliteX         -7.05    -27.15  -20.10  Na2(Al2Si2.5)O9(H2O)6.2
  zeoliteY        -13.95    -38.95  -25.00  Na2(Al2Si4)O12(H2O)8

**For a gas, SI = log10(fugacity). Fugacity = pressure * phi / 1 atm.
  For ideal gases, phi = 1.

Initial solution 2.	

-----------------------------Solution composition------------------------------

	Elements           Molality       Moles

	Al                4.928e-03   4.928e-03
	Ca                2.028e-04   2.028e-04
	Na                5.070e-01   5.070e-01
	Si                1.856e-03   1.856e-03

----------------------------Description of solution----------------------------

                                       pH  =  13.050    
                                       pe  =   4.000    
                        Activity of water  =   0.989
                 Ionic strength (mol/kgw)  =   3.121e-01
                       Mass of water (kg)  =   1.000e+00
                 Total alkalinity (eq/kg)  =   1.610e-01
                         Temperature (oC)  =  25.00
                  Electrical balance (eq)  =   3.415e-01
 Percent error, 100*(Cat-|An|)/(Cat+|An|)  =  54.93
                               Iterations  =   9 (16 overall)
                                  Total H  = 1.111753e+02
                                  Total O  = 5.568169e+01

----------------------------Distribution of species----------------------------

                                               Log       Log       Log    mole V
   Species          Molality    Activity  Molality  Activity     Gamma   cm3/mol

   OH-             1.323e-01   1.109e-01    -0.878    -0.955    -0.076     (0)  
   H+              1.090e-13   8.913e-14   -12.963   -13.050    -0.087      0.00
   H2O             5.551e+01   9.890e-01     1.744    -0.005     0.000     18.07
Al            4.928e-03
   AlO2-           4.848e-03   3.477e-03    -2.314    -2.459    -0.144     (0)  
   AlSiO5-3        8.004e-05   2.782e-06    -4.097    -5.556    -1.459     (0)  
   AlO2H           8.668e-10   8.668e-10    -9.062    -9.062     0.000     (0)  
   AlO+            7.507e-17   5.384e-17   -16.125   -16.269    -0.144     (0)  
   Al(OH)+2        9.019e-24   2.079e-24   -23.045   -23.682    -0.637     (0)  
   AlHSiO3+2       8.339e-28   1.922e-28   -27.079   -27.716    -0.637     (0)  
   Al+3            2.117e-31   1.698e-32   -30.674   -31.770    -1.096     (0)  
Ca            2.028e-04
   CaSiO3          1.224e-04   1.224e-04    -3.912    -3.912     0.000     (0)  
   Ca+2            4.681e-05   1.302e-05    -4.330    -4.885    -0.556     (0)  
   Ca(OH)+         3.342e-05   2.397e-05    -4.476    -4.620    -0.144     (0)  
   Ca(HSiO3)+      1.297e-07   9.301e-08    -6.887    -7.031    -0.144     (0)  
H(0)          1.245e-37
   H2              6.223e-38   6.223e-38   -37.206   -37.206     0.000     (0)  
Na            5.070e-01
   Na+             4.814e-01   3.486e-01    -0.317    -0.458    -0.140     (0)  
   NaOH            2.556e-02   2.556e-02    -1.593    -1.593     0.000     (0)  
O(0)          3.202e-18
   O2              1.601e-18   1.601e-18   -17.796   -17.796     0.000     (0)  
Si            1.856e-03
   SiO3-2          1.024e-03   2.361e-04    -2.990    -3.627    -0.637     (0)  
   HSiO3-          6.283e-04   4.506e-04    -3.202    -3.346    -0.144     (0)  
   CaSiO3          1.224e-04   1.224e-04    -3.912    -3.912     0.000     (0)  
   AlSiO5-3        8.004e-05   2.782e-06    -4.097    -5.556    -1.459     (0)  
   SiO2            2.618e-07   2.618e-07    -6.582    -6.582     0.000     (0)  
   Ca(HSiO3)+      1.297e-07   9.301e-08    -6.887    -7.031    -0.144     (0)  
   Si4O10-4        1.484e-08   3.650e-11    -7.829   -10.438    -2.609     (0)  
   AlHSiO3+2       8.339e-28   1.922e-28   -27.079   -27.716    -0.637     (0)  

------------------------------Saturation indices-------------------------------

  Phase               SI** log IAP   log K(298 K,   1 atm)

  5CA               0.15     16.05   15.89  (CaO)1.25(SiO2)1(Al2O3)0.125(H2O)1.625
  5CNA             -0.90     22.34   23.24  (CaO)1.25(SiO2)1(Al2O3)0.125(Na2O)0.25(H2O)1.375
  AlOHam           -1.75    -15.51  -13.76  Al(OH)3
  AlOHmic          -0.84    -15.51  -14.67  Al(OH)3
  Amor-Sl          -3.87     -6.58   -2.71  SiO2
  C12A7          -129.77     37.43  167.20  (CaO)12(Al2O3)7
  C2AH65           -2.50     26.88   29.38  Ca2Al(OH)7(H2O)3
  C2AH7.5          -2.83     11.37   14.21  Ca2Al2(OH)10(H2O)2.5
  C2S              -2.63     35.84   38.47  (CaO)2SiO2
  C3A             -38.06     32.62   70.68  (CaO)3Al2O3
  C3AH6            -2.92     32.59   35.51  Ca3Al2O6(H2O)6
  C3AS0.41H5.18     0.96     29.89   28.94  Ca3Al2O6(SiO2)0.41(H2O)5.18
  C3AS0.84H4.32     1.28     27.07   25.79  AlCa3AlO6(SiO2)0.84(H2O)4.32
  C3S             -16.21     57.05   73.26  (CaO)3SiO2
  C4AH11           -6.72     53.77   60.49  Ca4Al2(OH)14(H2O)4
  C4AH13           -5.00     53.76   58.76  Ca4Al2(OH)14(H2O)6
  C4AH19           -4.83     53.74   58.56  Ca4Al2(OH)14(H2O)12
  CA               -9.50     -9.80   -0.31  CaOAl2O3
  CA2             -10.75    -40.82  -30.06  CaO(Al2O3)2
  CAH10            -2.26     -9.85   -7.59  CaOAl2O3(H2O)10
  chabazite       -10.36    -36.16  -25.80  Ca(Al2Si4)O12(H2O)6
  CSH3T-T2C        -0.05     25.22   25.27  ((CaO)0.75(SiO2)0.5(H2O)1.25)2
  CSH3T-T5C         0.13     18.27   18.14  ((CaO)1(SiO2)1(H2O)2)1.25
  CSH3T-TobH       -1.21     11.32   12.53  (CaO)1(SiO2)1.5(H2O)2.5
  CSHQ-JenD        -1.32     27.41   28.73  (CaO)1.5(SiO2)0.6667(H2O)2.5
  CSHQ-JenH        -0.49     21.69   22.18  (CaO)1.3333(SiO2)1(H2O)2.1667
  CSHQ-TobD        -0.38     13.28   13.66  ((CaO)1.25(SiO2)1(H2O)2.75)0.6667
  CSHQ-TobH        -0.74      7.55    8.29  (CaO)0.6667(SiO2)1(H2O)1.5
  ECSH1-NaSH       -0.43      4.98    5.41  ((NaOH)2.5SiO2H2O)0.2
  ECSH1-SH         -3.99     -6.59   -2.60  (SiO2H2O)1
  ECSH1-TobCa       0.06     11.08   11.02  ((Ca(OH)2)0.8333SiO2H2O)1
  ECSH2-JenCa      -0.35     17.25   17.60  ((Ca(OH)2)1.6667SiO2H2O)0.6
  ECSH2-NaSH       -0.93      4.98    5.91  ((NaOH)2.5SiO2H2O)0.2
  ECSH2-TobCa       0.06     11.08   11.02  ((Ca(OH)2)0.8333SiO2H2O)1
  Gbs              -0.39    -15.51  -15.12  Al(OH)3
  H2(g)           -34.10    -34.10   -0.00  H2
  H2O(g)           -1.49     -0.00    1.49  H2O
  INFCA            -0.42      8.54    8.96  (CaO)1(SiO2)1.1875(Al2O3)0.15625(H2O)1.65625
  INFCN             0.44     19.20   18.76  (CaO)1(SiO2)1.5(Na2O)0.3125(H2O)1.1875
  INFCNA           -0.04     17.20   17.23  (CaO)1(SiO2)1.1875(Al2O3)0.15625(Na2O)0.34375(H2O)1.3125
  Jennite          -0.56     28.76   29.32  (SiO2)1(CaO)1.666667(H2O)2.1
  Kln              -5.86    -44.19  -38.32  Al2Si2O5(OH)4
  Lim             -11.38     21.21   32.59  CaO
  Na2O            -42.26     25.18   67.44  Na2O
  NaSiOH           -0.67      4.98    5.65  ((NaOH)2.5SiO2H2O)0.2
  natrolite         4.61    -25.59  -30.20  Na2(Al2Si3)O10(H2O)2
  O2(g)           -14.92     68.19   83.11  O2
  Portlandite      -1.60     21.21   22.80  Ca(OH)2
  Qtz              -2.84     -6.58   -3.75  SiO2
  straetlingite     0.67      4.79    4.11  Ca2Al2SiO7(H2O)8
  straetlingite5_5  -2.30      4.80    7.10  Ca2Al2SiO7(H2O)5.5
  straetlingite7   -0.02      4.79    4.81  Ca2Al2SiO7(H2O)7
  T2C-CNASHss      -0.35     25.22   25.57  (CaO)1.5(SiO2)1(H2O)2.5
  T5C-CNASHss      -0.17     18.27   18.45  (CaO)1.25(SiO2)1.25(H2O)2.5
  Tob-I            -0.14     26.61   26.75  (SiO2)2.4(CaO)2(H2O)3.2
  Tob-II           -0.06     11.09   11.15  (SiO2)1(CaO)0.833333(H2O)1.333333
  TobH-CNASHss     -1.47     11.32   12.80  (CaO)1(SiO2)1.5(H2O)2.5
  zeoliteP_Ca      -2.69    -22.99  -20.30  Ca(Al2Si2)O8(H2O)4.5
  zeoliteX         -2.22    -22.32  -20.10  Na2(Al2Si2.5)O9(H2O)6.2
  zeoliteY         -7.20    -32.20  -25.00  Na2(Al2Si4)O12(H2O)8

**For a gas, SI = log10(fugacity). Fugacity = pressure * phi / 1 atm.
  For ideal gases, phi = 1.

Initial solution 3.	

-----------------------------Solution composition------------------------------

	Elements           Molality       Moles

	Al                1.295e-02   1.295e-02
	Ca                4.470e-04   4.470e-04
	Na                5.080e-01   5.080e-01
	Si                2.743e-03   2.743e-03

----------------------------Description of solution----------------------------

                                       pH  =  13.290    
                                       pe  =   4.000    
                        Activity of water  =   0.987
                 Ionic strength (mol/kgw)  =   3.588e-01
                       Mass of water (kg)  =   1.000e+00
                 Total alkalinity (eq/kg)  =   2.767e-01
                         Temperature (oC)  =  25.00
                  Electrical balance (eq)  =   2.193e-01
 Percent error, 100*(Cat-|An|)/(Cat+|An|)  =  30.79
                               Iterations  =   9 (25 overall)
                                  Total H  = 1.112890e+02
                                  Total O  = 5.581424e+01

----------------------------Distribution of species----------------------------

                                               Log       Log       Log    mole V
   Species          Molality    Activity  Molality  Activity     Gamma   cm3/mol

   OH-             2.291e-01   1.925e-01    -0.640    -0.716    -0.076     (0)  
   H+              6.270e-14   5.129e-14   -13.203   -13.290    -0.087      0.00
   H2O             5.551e+01   9.872e-01     1.744    -0.006     0.000     18.07
Al            1.295e-02
   AlO2-           1.261e-02   8.968e-03    -1.899    -2.047    -0.148     (0)  
   AlSiO5-3        3.446e-04   1.051e-05    -3.463    -4.978    -1.516     (0)  
   AlO2H           1.287e-09   1.287e-09    -8.891    -8.891     0.000     (0)  
   AlO+            6.477e-17   4.607e-17   -16.189   -16.337    -0.148     (0)  
   Al(OH)+2        4.688e-24   1.024e-24   -23.329   -23.990    -0.661     (0)  
   AlHSiO3+2       2.106e-28   4.599e-29   -27.676   -28.337    -0.661     (0)  
   Al+3            6.396e-32   4.820e-33   -31.194   -32.317    -1.123     (0)  
Ca            4.470e-04
   CaSiO3          2.799e-04   2.799e-04    -3.553    -3.553     0.000     (0)  
   Ca(OH)+         9.126e-05   6.491e-05    -4.040    -4.188    -0.148     (0)  
   Ca+2            7.567e-05   2.033e-05    -4.121    -4.692    -0.571     (0)  
   Ca(HSiO3)+      1.721e-07   1.224e-07    -6.764    -6.912    -0.148     (0)  
H(0)          4.121e-38
   H2              2.060e-38   2.060e-38   -37.686   -37.686     0.000     (0)  
Na            5.080e-01
   Na+             4.655e-01   3.344e-01    -0.332    -0.476    -0.144     (0)  
   NaOH            4.252e-02   4.252e-02    -1.371    -1.371     0.000     (0)  
O(0)          2.910e-17
   O2              1.455e-17   1.455e-17   -16.837   -16.837     0.000     (0)  
Si            2.743e-03
   SiO3-2          1.584e-03   3.459e-04    -2.800    -3.461    -0.661     (0)  
   HSiO3-          5.341e-04   3.799e-04    -3.272    -3.420    -0.148     (0)  
   AlSiO5-3        3.446e-04   1.051e-05    -3.463    -4.978    -1.516     (0)  
   CaSiO3          2.799e-04   2.799e-04    -3.553    -3.553     0.000     (0)  
   Ca(HSiO3)+      1.721e-07   1.224e-07    -6.764    -6.912    -0.148     (0)  
   SiO2            1.272e-07   1.272e-07    -6.895    -6.895     0.000     (0)  
   Si4O10-4        9.535e-09   1.850e-11    -8.021   -10.733    -2.712     (0)  
   AlHSiO3+2       2.106e-28   4.599e-29   -27.676   -28.337    -0.661     (0)  

------------------------------Saturation indices-------------------------------

  Phase               SI** log IAP   log K(298 K,   1 atm)

  5CA               0.72     16.61   15.89  (CaO)1.25(SiO2)1(Al2O3)0.125(H2O)1.625
  5CNA             -0.22     23.02   23.24  (CaO)1.25(SiO2)1(Al2O3)0.125(Na2O)0.25(H2O)1.375
  AlOHam           -1.58    -15.34  -13.76  Al(OH)3
  AlOHmic          -0.67    -15.34  -14.67  Al(OH)3
  Amor-Sl          -4.18     -6.90   -2.71  SiO2
  C12A7          -119.29     47.91  167.20  (CaO)12(Al2O3)7
  C2AH65           -0.99     28.39   29.38  Ca2Al(OH)7(H2O)3
  C2AH7.5          -1.15     13.05   14.21  Ca2Al2(OH)10(H2O)2.5
  C2S              -1.60     36.87   38.47  (CaO)2SiO2
  C3A             -35.70     34.98   70.68  (CaO)3Al2O3
  C3AH6            -0.56     34.94   35.51  Ca3Al2O6(H2O)6
  C3AS0.41H5.18     3.19     32.12   28.94  Ca3Al2O6(SiO2)0.41(H2O)5.18
  C3AS0.84H4.32     3.38     29.16   25.79  AlCa3AlO6(SiO2)0.84(H2O)4.32
  C3S             -14.51     58.75   73.26  (CaO)3SiO2
  C4AH11           -3.69     56.80   60.49  Ca4Al2(OH)14(H2O)4
  C4AH13           -1.97     56.79   58.76  Ca4Al2(OH)14(H2O)6
  C4AH19           -1.81     56.75   58.56  Ca4Al2(OH)14(H2O)12
  CA               -8.48     -8.79   -0.31  CaOAl2O3
  CA2              -9.39    -39.46  -30.06  CaO(Al2O3)2
  CAH10            -1.25     -8.84   -7.59  CaOAl2O3(H2O)10
  chabazite       -10.60    -36.40  -25.80  Ca(Al2Si4)O12(H2O)6
  CSH3T-T2C         0.64     25.91   25.27  ((CaO)0.75(SiO2)0.5(H2O)1.25)2
  CSH3T-T5C         0.58     18.72   18.14  ((CaO)1(SiO2)1(H2O)2)1.25
  CSH3T-TobH       -1.00     11.53   12.53  (CaO)1(SiO2)1.5(H2O)2.5
  CSHQ-JenD        -0.52     28.21   28.73  (CaO)1.5(SiO2)0.6667(H2O)2.5
  CSHQ-JenH         0.09     22.27   22.18  (CaO)1.3333(SiO2)1(H2O)2.1667
  CSHQ-TobD        -0.03     13.63   13.66  ((CaO)1.25(SiO2)1(H2O)2.75)0.6667
  CSHQ-TobH        -0.60      7.69    8.29  (CaO)0.6667(SiO2)1(H2O)1.5
  ECSH1-NaSH       -0.39      5.02    5.41  ((NaOH)2.5SiO2H2O)0.2
  ECSH1-SH         -4.30     -6.90   -2.60  (SiO2H2O)1
  ECSH1-TobCa       0.31     11.33   11.02  ((Ca(OH)2)0.8333SiO2H2O)1
  ECSH2-JenCa       0.13     17.74   17.60  ((Ca(OH)2)1.6667SiO2H2O)0.6
  ECSH2-NaSH       -0.89      5.02    5.91  ((NaOH)2.5SiO2H2O)0.2
  ECSH2-TobCa       0.31     11.33   11.02  ((Ca(OH)2)0.8333SiO2H2O)1
  Gbs              -0.22    -15.34  -15.12  Al(OH)3
  H2(g)           -34.58    -34.58   -0.00  H2
  H2O(g)           -1.49     -0.01    1.49  H2O
  INFCA            -0.06      8.89    8.96  (CaO)1(SiO2)1.1875(Al2O3)0.15625(H2O)1.65625
  INFCN             0.78     19.54   18.76  (CaO)1(SiO2)1.5(Na2O)0.3125(H2O)1.1875
  INFCNA            0.47     17.70   17.23  (CaO)1(SiO2)1.1875(Al2O3)0.15625(Na2O)0.34375(H2O)1.3125
  Jennite           0.25     29.56   29.32  (SiO2)1(CaO)1.666667(H2O)2.1
  Kln              -6.15    -44.47  -38.32  Al2Si2O5(OH)4
  Lim             -10.71     21.88   32.59  CaO
  Na2O            -41.82     25.62   67.44  Na2O
  NaSiOH           -0.62      5.02    5.65  ((NaOH)2.5SiO2H2O)0.2
  natrolite         4.46    -25.74  -30.20  Na2(Al2Si3)O10(H2O)2
  O2(g)           -13.96     69.15   83.11  O2
  Portlandite      -0.92     21.88   22.80  Ca(OH)2
  Qtz              -3.15     -6.90   -3.75  SiO2
  straetlingite     2.04      6.16    4.11  Ca2Al2SiO7(H2O)8
  straetlingite5_5  -0.93      6.17    7.10  Ca2Al2SiO7(H2O)5.5
  straetlingite7    1.35      6.16    4.81  Ca2Al2SiO7(H2O)7
  T2C-CNASHss       0.35     25.91   25.57  (CaO)1.5(SiO2)1(H2O)2.5
  T5C-CNASHss       0.27     18.72   18.45  (CaO)1.25(SiO2)1.25(H2O)2.5
  Tob-I             0.45     27.20   26.75  (SiO2)2.4(CaO)2(H2O)3.2
  Tob-II            0.19     11.33   11.15  (SiO2)1(CaO)0.833333(H2O)1.333333
  TobH-CNASHss     -1.27     11.53   12.80  (CaO)1(SiO2)1.5(H2O)2.5
  zeoliteP_Ca      -2.30    -22.60  -20.30  Ca(Al2Si2)O8(H2O)4.5
  zeoliteX         -2.22    -22.32  -20.10  Na2(Al2Si2.5)O9(H2O)6.2
  zeoliteY         -7.67    -32.67  -25.00  Na2(Al2Si4)O12(H2O)8

**For a gas, SI = log10(fugacity). Fugacity = pressure * phi / 1 atm.
  For ideal gases, phi = 1.

-----------------------------------------
Beginning of batch-reaction calculations.
-----------------------------------------

Reaction step 1.

Using solution 1.	
Using pure phase assemblage 1.	

-------------------------------Phase assemblage--------------------------------

                                                      Moles in assemblage
Phase               SI  log IAP  log K(T, P)   Initial       Final       Delta

CO2(g)          -12.16   -30.30    -18.14    1.000e-03           0  -1.000e-03

-----------------------------Solution composition------------------------------

	Elements           Molality       Moles

	Al                7.402e-04   7.402e-04
	C                 1.000e-03   1.000e-03
	Ca                2.363e-03   2.363e-03
	Na                5.070e-01   5.070e-01
	Si                3.143e-04   3.143e-04

----------------------------Description of solution----------------------------

                                       pH  =  13.095      Charge balance
                                       pe  =  -7.760      Adjusted to redox equilibrium
                        Activity of water  =   0.989
                 Ionic strength (mol/kgw)  =   3.167e-01
                       Mass of water (kg)  =   1.000e+00
                 Total alkalinity (eq/kg)  =   1.784e-01
                       Total CO2 (mol/kg)  =   1.000e-03
                         Temperature (oC)  =  25.00
                  Electrical balance (eq)  =   3.326e-01
 Percent error, 100*(Cat-|An|)/(Cat+|An|)  =  52.76
                               Iterations  =  21
                                  Total H  = 1.111946e+02
                                  Total O  = 5.569062e+01

----------------------------Distribution of species----------------------------

                                               Log       Log       Log    mole V
   Species          Molality    Activity  Molality  Activity     Gamma   cm3/mol

   OH-             1.468e-01   1.231e-01    -0.833    -0.910    -0.076     (0)  
   H+              9.825e-14   8.032e-14   -13.008   -13.095    -0.087      0.00
   H2O             5.551e+01   9.888e-01     1.744    -0.005     0.000     18.07
Al            7.402e-04
   AlO2-           7.394e-04   5.298e-04    -3.131    -3.276    -0.145     (0)  
   AlSiO5-3        8.285e-07   2.841e-08    -6.082    -7.547    -1.465     (0)  
   AlO2H           1.190e-10   1.190e-10    -9.924    -9.924     0.000     (0)  
   AlO+            9.301e-18   6.665e-18   -17.031   -17.176    -0.145     (0)  
   Al(OH)+2        1.012e-24   2.319e-25   -23.995   -24.635    -0.640     (0)  
   AlHSiO3+2       5.093e-30   1.167e-30   -29.293   -29.933    -0.640     (0)  
   Al+3            2.143e-32   1.708e-33   -31.669   -32.768    -1.099     (0)  
C(-4)         1.591e-35
   CH4             1.591e-35   1.591e-35   -34.798   -34.798     0.000     (0)  
C(4)          1.000e-03
   NaCO3-          6.851e-04   4.909e-04    -3.164    -3.309    -0.145     (0)  
   CO3-2           2.729e-04   7.617e-05    -3.564    -4.118    -0.554     (0)  
   CaCO3           4.180e-05   4.180e-05    -4.379    -4.379     0.000     (0)  
   HCO3-           1.817e-07   1.305e-07    -6.741    -6.884    -0.144     (0)  
   NaHCO3          2.540e-08   2.540e-08    -7.595    -7.595     0.000     (0)  
   Ca(HCO3)+       7.604e-10   5.449e-10    -9.119    -9.264    -0.145     (0)  
   CO2             2.385e-14   2.385e-14   -13.623   -13.623     0.000     (0)  
Ca            2.363e-03
   Ca+2            1.181e-03   3.274e-04    -2.928    -3.485    -0.557     (0)  
   Ca(OH)+         9.330e-04   6.686e-04    -3.030    -3.175    -0.145     (0)  
   CaSiO3          2.063e-04   2.063e-04    -3.686    -3.686     0.000     (0)  
   CaCO3           4.180e-05   4.180e-05    -4.379    -4.379     0.000     (0)  
   Ca(HSiO3)+      1.971e-07   1.412e-07    -6.705    -6.850    -0.145     (0)  
   Ca(HCO3)+       7.604e-10   5.449e-10    -9.119    -9.264    -0.145     (0)  
H(0)          3.345e-14
   H2              1.672e-14   1.672e-14   -13.777   -13.777     0.000     (0)  
Na            5.070e-01
   Na+             4.782e-01   3.459e-01    -0.320    -0.461    -0.141     (0)  
   NaOH            2.813e-02   2.813e-02    -1.551    -1.551     0.000     (0)  
   NaCO3-          6.851e-04   4.909e-04    -3.164    -3.309    -0.145     (0)  
   NaHCO3          2.540e-08   2.540e-08    -7.595    -7.595     0.000     (0)  
O(0)          0.000e+00
   O2              0.000e+00   0.000e+00   -64.654   -64.654     0.000     (0)  
Si            3.143e-04
   CaSiO3          2.063e-04   2.063e-04    -3.686    -3.686     0.000     (0)  
   SiO3-2          6.904e-05   1.582e-05    -4.161    -4.801    -0.640     (0)  
   HSiO3-          3.798e-05   2.722e-05    -4.420    -4.565    -0.145     (0)  
   AlSiO5-3        8.285e-07   2.841e-08    -6.082    -7.547    -1.465     (0)  
   Ca(HSiO3)+      1.971e-07   1.412e-07    -6.705    -6.850    -0.145     (0)  
   SiO2            1.425e-08   1.425e-08    -7.846    -7.846     0.000     (0)  
   Si4O10-4        2.024e-13   4.858e-16   -12.694   -15.314    -2.620     (0)  
   AlHSiO3+2       5.093e-30   1.167e-30   -29.293   -29.933    -0.640     (0)  

------------------------------Saturation indices-------------------------------

  Phase               SI** log IAP   log K(298 K,   1 atm)

  5CA               0.54     16.43   15.89  (CaO)1.25(SiO2)1(Al2O3)0.125(H2O)1.625
  5CNA             -0.49     22.75   23.24  (CaO)1.25(SiO2)1(Al2O3)0.125(Na2O)0.25(H2O)1.375
  AlOHam           -2.62    -16.38  -13.76  Al(OH)3
  AlOHmic          -1.71    -16.38  -14.67  Al(OH)3
  Amor-Sl          -5.13     -7.85   -2.71  SiO2
  Arg               0.73     -7.60   -8.34  CaCO3
  C12A7          -123.95     43.25  167.20  (CaO)12(Al2O3)7
  C2AH65           -0.38     29.00   29.38  Ca2Al(OH)7(H2O)3
  C2AH7.5          -1.58     12.63   14.21  Ca2Al2(OH)10(H2O)2.5
  C2S              -0.91     37.55   38.47  (CaO)2SiO2
  C3A             -35.31     35.36   70.68  (CaO)3Al2O3
  C3AH6            -0.17     35.34   35.51  Ca3Al2O6(H2O)6
  C3AS0.41H5.18     3.18     32.12   28.94  Ca3Al2O6(SiO2)0.41(H2O)5.18
  C3AS0.84H4.32     2.97     28.75   25.79  AlCa3AlO6(SiO2)0.84(H2O)4.32
  C3S             -13.01     60.26   73.26  (CaO)3SiO2
  C4AH11           -2.48     58.01   60.49  Ca4Al2(OH)14(H2O)4
  C4AH13           -0.76     58.00   58.76  Ca4Al2(OH)14(H2O)6
  C4AH19           -0.59     57.97   58.56  Ca4Al2(OH)14(H2O)12
  CA               -9.73    -10.04   -0.31  CaOAl2O3
  CA2             -12.71    -42.77  -30.06  CaO(Al2O3)2
  CAH10            -2.49    -10.09   -7.59  CaOAl2O3(H2O)10
  Cal               0.88     -7.60   -8.48  CaCO3
  CH4(g)          -31.93    -72.98  -41.04  CH4
  chabazite       -15.65    -41.45  -25.80  Ca(Al2Si4)O12(H2O)6
  CO2(g)          -12.16    -30.30  -18.14  CO2
  CSH3T-T2C         0.92     26.19   25.27  ((CaO)0.75(SiO2)0.5(H2O)1.25)2
  CSH3T-T5C         0.42     18.56   18.14  ((CaO)1(SiO2)1(H2O)2)1.25
  CSH3T-TobH       -1.61     10.92   12.53  (CaO)1(SiO2)1.5(H2O)2.5
  CSHQ-JenD         0.08     28.81   28.73  (CaO)1.5(SiO2)0.6667(H2O)2.5
  CSHQ-JenH         0.23     22.41   22.18  (CaO)1.3333(SiO2)1(H2O)2.1667
  CSHQ-TobD         0.02     13.68   13.66  ((CaO)1.25(SiO2)1(H2O)2.75)0.6667
  CSHQ-TobH        -1.01      7.28    8.29  (CaO)0.6667(SiO2)1(H2O)1.5
  ECSH1-NaSH       -0.67      4.74    5.41  ((NaOH)2.5SiO2H2O)0.2
  ECSH1-SH         -5.25     -7.85   -2.60  (SiO2H2O)1
  ECSH1-TobCa       0.04     11.06   11.02  ((Ca(OH)2)0.8333SiO2H2O)1
  ECSH2-JenCa       0.38     17.99   17.60  ((Ca(OH)2)1.6667SiO2H2O)0.6
  ECSH2-NaSH       -1.17      4.74    5.91  ((NaOH)2.5SiO2H2O)0.2
  ECSH2-TobCa       0.04     11.06   11.02  ((Ca(OH)2)0.8333SiO2H2O)1
  Gbs              -1.25    -16.38  -15.12  Al(OH)3
  Gr              -19.48    -51.64  -32.16  C
  H2(g)           -10.67    -10.67   -0.00  H2
  H2O(g)           -1.49     -0.00    1.49  H2O
  hemicarbonat10.5   0.25     42.86   42.61  (CaO)3Al2O3(CaCO3)0.5(CaO2H2)0.5(H2O)10
  hemicarbonate     1.98     42.85   40.88  (CaO)3Al2O3(CaCO3)0.5(CaO2H2)0.5(H2O)11.5
  hemicarbonate9   -2.74     42.87   45.61  (CaO)3Al2O3(CaCO3)0.5(CaO2H2)0.5(H2O)8.5
  INFCA            -0.70      8.26    8.96  (CaO)1(SiO2)1.1875(Al2O3)0.15625(H2O)1.65625
  INFCN             0.06     18.82   18.76  (CaO)1(SiO2)1.5(Na2O)0.3125(H2O)1.1875
  INFCNA           -0.29     16.95   17.23  (CaO)1(SiO2)1.1875(Al2O3)0.15625(Na2O)0.34375(H2O)1.3125
  Jennite           0.66     29.98   29.32  (SiO2)1(CaO)1.666667(H2O)2.1
  Kln             -10.11    -48.44  -38.32  Al2Si2O5(OH)4
  Lim              -9.89     22.70   32.59  CaO
  monocarbonate     3.17     27.71   24.54  Ca4Al2CO9(H2O)11
  monocarbonate05   1.58     13.85   12.27  Ca2AlC0.5O4.5(H2O)5.5
  monocarbonate9   -0.82     27.72   28.54  Ca4Al2CO9(H2O)9
  Na2O            -42.18     25.26   67.44  Na2O
  NaSiOH           -0.90      4.74    5.65  ((NaOH)2.5SiO2H2O)0.2
  natrolite        -0.82    -31.02  -30.20  Na2(Al2Si3)O10(H2O)2
  O2(g)           -61.77     21.33   83.11  O2
  Portlandite      -0.10     22.70   22.80  Ca(OH)2
  Qtz              -4.10     -7.85   -3.75  SiO2
  straetlingite     0.67      4.78    4.11  Ca2Al2SiO7(H2O)8
  straetlingite5_5  -2.30      4.79    7.10  Ca2Al2SiO7(H2O)5.5
  straetlingite7   -0.03      4.78    4.81  Ca2Al2SiO7(H2O)7
  T2C-CNASHss       0.63     26.19   25.57  (CaO)1.5(SiO2)1(H2O)2.5
  T5C-CNASHss       0.11     18.56   18.45  (CaO)1.25(SiO2)1.25(H2O)2.5
  Tob-I            -0.19     26.55   26.75  (SiO2)2.4(CaO)2(H2O)3.2
  Tob-II           -0.08     11.06   11.15  (SiO2)1(CaO)0.833333(H2O)1.333333
  TobH-CNASHss     -1.88     10.92   12.80  (CaO)1(SiO2)1.5(H2O)2.5
  tricarboalu03     0.96      4.13    3.17  (CO3)Ca2Al0.6666667(OH)4(H2O)8.6666667
  zeoliteP_Ca      -5.45    -25.75  -20.30  Ca(Al2Si2)O8(H2O)4.5
  zeoliteX         -7.02    -27.12  -20.10  Na2(Al2Si2.5)O9(H2O)6.2
  zeoliteY        -13.90    -38.90  -25.00  Na2(Al2Si4)O12(H2O)8

**For a gas, SI = log10(fugacity). Fugacity = pressure * phi / 1 atm.
  For ideal gases, phi = 1.

------------------
End of simulation.
------------------

------------------------------------
Reading input data for simulation 2.
------------------------------------

	USE solution 2
	USE equilibrium_phases 2
	END
-----------------------------------------
Beginning of batch-reaction calculations.
-----------------------------------------

Reaction step 1.

Using solution 2.	
Using pure phase assemblage 2.	

-------------------------------Phase assemblage--------------------------------

                                                      Moles in assemblage
Phase               SI  log IAP  log K(T, P)   Initial       Final       Delta

CO2(g)          -12.04   -30.19    -18.14    1.000e-03           0  -1.000e-03

-----------------------------Solution composition------------------------------

	Elements           Molality       Moles

	Al                4.928e-03   4.928e-03
	C                 1.000e-03   1.000e-03
	Ca                2.028e-04   2.028e-04
	Na                5.070e-01   5.070e-01
	Si                1.856e-03   1.856e-03

----------------------------Description of solution----------------------------

                                       pH  =  13.045      Charge balance
                                       pe  =  -7.375      Adjusted to redox equilibrium
                        Activity of water  =   0.989
                 Ionic strength (mol/kgw)  =   3.120e-01
                       Mass of water (kg)  =   1.000e+00
                 Total alkalinity (eq/kg)  =   1.610e-01
                       Total CO2 (mol/kg)  =   1.000e-03
                         Temperature (oC)  =  25.00
                  Electrical balance (eq)  =   3.415e-01
 Percent error, 100*(Cat-|An|)/(Cat+|An|)  =  55.00
                               Iterations  =  22
                                  Total H  = 1.111753e+02
                                  Total O  = 5.568369e+01

----------------------------Distribution of species----------------------------

                                               Log       Log       Log    mole V
   Species          Molality    Activity  Molality  Activity     Gamma   cm3/mol

   OH-             1.307e-01   1.096e-01    -0.884    -0.960    -0.076     (0)  
   H+              1.104e-13   9.026e-14   -12.957   -13.045    -0.087      0.00
   H2O             5.551e+01   9.890e-01     1.744    -0.005     0.000     18.07
Al            4.928e-03
   AlO2-           4.848e-03   3.477e-03    -2.314    -2.459    -0.144     (0)  
   AlSiO5-3        7.970e-05   2.772e-06    -4.099    -5.557    -1.459     (0)  
   AlO2H           8.779e-10   8.779e-10    -9.057    -9.057     0.000     (0)  
   AlO+            7.699e-17   5.522e-17   -16.114   -16.258    -0.144     (0)  
   Al(OH)+2        9.366e-24   2.159e-24   -23.028   -23.666    -0.637     (0)  
   AlHSiO3+2       8.846e-28   2.039e-28   -27.053   -27.690    -0.637     (0)  
   Al+3            2.226e-31   1.786e-32   -30.652   -31.748    -1.096     (0)  
C(-4)         4.442e-38
   CH4             4.442e-38   4.442e-38   -37.352   -37.352     0.000     (0)  
C(4)          1.000e-03
   NaCO3-          7.158e-04   5.134e-04    -3.145    -3.290    -0.144     (0)  
   CO3-2           2.823e-04   7.911e-05    -3.549    -4.102    -0.552     (0)  
   CaCO3           1.720e-06   1.720e-06    -5.765    -5.765     0.000     (0)  
   HCO3-           2.118e-07   1.523e-07    -6.674    -6.817    -0.143     (0)  
   NaHCO3          2.985e-08   2.985e-08    -7.525    -7.525     0.000     (0)  
   Ca(HCO3)+       3.512e-11   2.519e-11   -10.454   -10.599    -0.144     (0)  
   CO2             3.126e-14   3.126e-14   -13.505   -13.505     0.000     (0)  
Ca            2.028e-04
   CaSiO3          1.215e-04   1.215e-04    -3.916    -3.916     0.000     (0)  
   Ca+2            4.662e-05   1.297e-05    -4.331    -4.887    -0.556     (0)  
   Ca(OH)+         3.287e-05   2.358e-05    -4.483    -4.628    -0.144     (0)  
   CaCO3           1.720e-06   1.720e-06    -5.765    -5.765     0.000     (0)  
   Ca(HSiO3)+      1.303e-07   9.344e-08    -6.885    -7.029    -0.144     (0)  
   Ca(HCO3)+       3.512e-11   2.519e-11   -10.454   -10.599    -0.144     (0)  
H(0)          7.185e-15
   H2              3.593e-15   3.593e-15   -14.445   -14.445     0.000     (0)  
Na            5.070e-01
   Na+             4.811e-01   3.483e-01    -0.318    -0.458    -0.140     (0)  
   NaOH            2.522e-02   2.522e-02    -1.598    -1.598     0.000     (0)  
   NaCO3-          7.158e-04   5.134e-04    -3.145    -3.290    -0.144     (0)  
   NaHCO3          2.985e-08   2.985e-08    -7.525    -7.525     0.000     (0)  
O(0)          0.000e+00
   O2              0.000e+00   0.000e+00   -63.318   -63.318     0.000     (0)  
Si            1.856e-03
   SiO3-2          1.020e-03   2.352e-04    -2.991    -3.629    -0.637     (0)  
   HSiO3-          6.337e-04   4.545e-04    -3.198    -3.342    -0.144     (0)  
   CaSiO3          1.215e-04   1.215e-04    -3.916    -3.916     0.000     (0)  
   AlSiO5-3        7.970e-05   2.772e-06    -4.099    -5.557    -1.459     (0)  
   SiO2            2.674e-07   2.674e-07    -6.573    -6.573     0.000     (0)  
   Ca(HSiO3)+      1.303e-07   9.344e-08    -6.885    -7.029    -0.144     (0)  
   Si4O10-4        1.535e-08   3.778e-11    -7.814   -10.423    -2.609     (0)  
   AlHSiO3+2       8.846e-28   2.039e-28   -27.053   -27.690    -0.637     (0)  

------------------------------Saturation indices-------------------------------

  Phase               SI** log IAP   log K(298 K,   1 atm)

  5CA               0.15     16.04   15.89  (CaO)1.25(SiO2)1(Al2O3)0.125(H2O)1.625
  5CNA             -0.91     22.33   23.24  (CaO)1.25(SiO2)1(Al2O3)0.125(Na2O)0.25(H2O)1.375
  AlOHam           -1.75    -15.51  -13.76  Al(OH)3
  AlOHmic          -0.84    -15.51  -14.67  Al(OH)3
  Amor-Sl          -3.86     -6.57   -2.71  SiO2
  Arg              -0.65     -8.99   -8.34  CaCO3
  C12A7          -129.84     37.35  167.20  (CaO)12(Al2O3)7
  C2AH65           -2.52     26.86   29.38  Ca2Al(OH)7(H2O)3
  C2AH7.5          -2.85     11.36   14.21  Ca2Al2(OH)10(H2O)2.5
  C2S              -2.64     35.82   38.47  (CaO)2SiO2
  C3A             -38.09     32.59   70.68  (CaO)3Al2O3
  C3AH6            -2.94     32.56   35.51  Ca3Al2O6(H2O)6
  C3AS0.41H5.18     0.93     29.87   28.94  Ca3Al2O6(SiO2)0.41(H2O)5.18
  C3AS0.84H4.32     1.26     27.05   25.79  AlCa3AlO6(SiO2)0.84(H2O)4.32
  C3S             -16.24     57.02   73.26  (CaO)3SiO2
  C4AH11           -6.76     53.73   60.49  Ca4Al2(OH)14(H2O)4
  C4AH13           -5.04     53.72   58.76  Ca4Al2(OH)14(H2O)6
  C4AH19           -4.87     53.70   58.56  Ca4Al2(OH)14(H2O)12
  CA               -9.50     -9.80   -0.31  CaOAl2O3
  CA2             -10.74    -40.81  -30.06  CaO(Al2O3)2
  CAH10            -2.26     -9.85   -7.59  CaOAl2O3(H2O)10
  Cal              -0.51     -8.99   -8.48  CaCO3
  CH4(g)          -34.49    -75.53  -41.04  CH4
  chabazite       -10.32    -36.12  -25.80  Ca(Al2Si4)O12(H2O)6
  CO2(g)          -12.04    -30.19  -18.14  CO2
  CSH3T-T2C        -0.06     25.21   25.27  ((CaO)0.75(SiO2)0.5(H2O)1.25)2
  CSH3T-T5C         0.13     18.27   18.14  ((CaO)1(SiO2)1(H2O)2)1.25
  CSH3T-TobH       -1.20     11.33   12.53  (CaO)1(SiO2)1.5(H2O)2.5
  CSHQ-JenD        -1.33     27.40   28.73  (CaO)1.5(SiO2)0.6667(H2O)2.5
  CSHQ-JenH        -0.50     21.68   22.18  (CaO)1.3333(SiO2)1(H2O)2.1667
  CSHQ-TobD        -0.38     13.27   13.66  ((CaO)1.25(SiO2)1(H2O)2.75)0.6667
  CSHQ-TobH        -0.74      7.55    8.29  (CaO)0.6667(SiO2)1(H2O)1.5
  ECSH1-NaSH       -0.44      4.98    5.41  ((NaOH)2.5SiO2H2O)0.2
  ECSH1-SH         -3.98     -6.58   -2.60  (SiO2H2O)1
  ECSH1-TobCa       0.06     11.08   11.02  ((Ca(OH)2)0.8333SiO2H2O)1
  ECSH2-JenCa      -0.36     17.25   17.60  ((Ca(OH)2)1.6667SiO2H2O)0.6
  ECSH2-NaSH       -0.93      4.98    5.91  ((NaOH)2.5SiO2H2O)0.2
  ECSH2-TobCa       0.06     11.08   11.02  ((Ca(OH)2)0.8333SiO2H2O)1
  Gbs              -0.38    -15.51  -15.12  Al(OH)3
  Gr              -20.69    -52.85  -32.16  C
  H2(g)           -11.34    -11.34   -0.00  H2
  H2O(g)           -1.49     -0.00    1.49  H2O
  hemicarbonat10.5  -3.97     38.64   42.61  (CaO)3Al2O3(CaCO3)0.5(CaO2H2)0.5(H2O)10
  hemicarbonate    -2.24     38.64   40.88  (CaO)3Al2O3(CaCO3)0.5(CaO2H2)0.5(H2O)11.5
  hemicarbonate9   -6.96     38.65   45.61  (CaO)3Al2O3(CaCO3)0.5(CaO2H2)0.5(H2O)8.5
  INFCA            -0.42      8.54    8.96  (CaO)1(SiO2)1.1875(Al2O3)0.15625(H2O)1.65625
  INFCN             0.44     19.20   18.76  (CaO)1(SiO2)1.5(Na2O)0.3125(H2O)1.1875
  INFCNA           -0.04     17.19   17.23  (CaO)1(SiO2)1.1875(Al2O3)0.15625(Na2O)0.34375(H2O)1.3125
  Jennite          -0.57     28.75   29.32  (SiO2)1(CaO)1.666667(H2O)2.1
  Kln              -5.83    -44.16  -38.32  Al2Si2O5(OH)4
  Lim             -11.39     21.20   32.59  CaO
  monocarbonate    -0.99     23.55   24.54  Ca4Al2CO9(H2O)11
  monocarbonate05  -0.50     11.77   12.27  Ca2AlC0.5O4.5(H2O)5.5
  monocarbonate9   -4.98     23.56   28.54  Ca4Al2CO9(H2O)9
  Na2O            -42.27     25.17   67.44  Na2O
  NaSiOH           -0.67      4.98    5.65  ((NaOH)2.5SiO2H2O)0.2
  natrolite         4.64    -25.56  -30.20  Na2(Al2Si3)O10(H2O)2
  O2(g)           -60.44     22.67   83.11  O2
  Portlandite      -1.61     21.19   22.80  Ca(OH)2
  Qtz              -2.83     -6.57   -3.75  SiO2
  straetlingite     0.67      4.78    4.11  Ca2Al2SiO7(H2O)8
  straetlingite5_5  -2.30      4.79    7.10  Ca2Al2SiO7(H2O)5.5
  straetlingite7   -0.03      4.79    4.81  Ca2Al2SiO7(H2O)7
  T2C-CNASHss      -0.36     25.21   25.57  (CaO)1.5(SiO2)1(H2O)2.5
  T5C-CNASHss      -0.18     18.27   18.45  (CaO)1.25(SiO2)1.25(H2O)2.5
  Tob-I            -0.14     26.60   26.75  (SiO2)2.4(CaO)2(H2O)3.2
  Tob-II           -0.06     11.09   11.15  (SiO2)1(CaO)0.833333(H2O)1.333333
  TobH-CNASHss     -1.47     11.33   12.80  (CaO)1(SiO2)1.5(H2O)2.5
  tricarboalu03    -1.35      1.82    3.17  (CO3)Ca2Al0.6666667(OH)4(H2O)8.6666667
  zeoliteP_Ca      -2.67    -22.97  -20.30  Ca(Al2Si2)O8(H2O)4.5
  zeoliteX         -2.20    -22.30  -20.10  Na2(Al2Si2.5)O9(H2O)6.2
  zeoliteY         -7.16    -32.16  -25.00  Na2(Al2Si4)O12(H2O)8

**For a gas, SI = log10(fugacity). Fugacity = pressure * phi / 1 atm.
  For ideal gases, phi = 1.

------------------
End of simulation.
------------------

------------------------------------
Reading input data for simulation 3.
------------------------------------

	USE solution 3
	USE equilibrium_phases 3
	END
-----------------------------------------
Beginning of batch-reaction calculations.
-----------------------------------------

Reaction step 1.

Using solution 3.	
Using pure phase assemblage 3.	

-------------------------------Phase assemblage--------------------------------

                                                      Moles in assemblage
Phase               SI  log IAP  log K(T, P)   Initial       Final       Delta

CO2(g)          -12.52   -30.66    -18.14    1.000e-03           0  -1.000e-03

-----------------------------Solution composition------------------------------

	Elements           Molality       Moles

	Al                1.295e-02   1.295e-02
	C                 1.000e-03   1.000e-03
	Ca                4.470e-04   4.470e-04
	Na                5.080e-01   5.080e-01
	Si                2.743e-03   2.743e-03

----------------------------Description of solution----------------------------

                                       pH  =  13.287      Charge balance
                                       pe  =   4.047      Adjusted to redox equilibrium
                        Activity of water  =   0.987
                 Ionic strength (mol/kgw)  =   3.587e-01
                       Mass of water (kg)  =   1.000e+00
                 Total alkalinity (eq/kg)  =   2.767e-01
                       Total CO2 (mol/kg)  =   1.000e-03
                         Temperature (oC)  =  25.00
                  Electrical balance (eq)  =   2.193e-01
 Percent error, 100*(Cat-|An|)/(Cat+|An|)  =  30.82
                               Iterations  =   9
                                  Total H  = 1.112890e+02
                                  Total O  = 5.581624e+01

----------------------------Distribution of species----------------------------

                                               Log       Log       Log    mole V
   Species          Molality    Activity  Molality  Activity     Gamma   cm3/mol

   OH-             2.275e-01   1.911e-01    -0.643    -0.719    -0.076     (0)  
   H+              6.316e-14   5.166e-14   -13.200   -13.287    -0.087      0.00
   H2O             5.551e+01   9.872e-01     1.744    -0.006     0.000     18.07
Al            1.295e-02
   AlO2-           1.261e-02   8.968e-03    -1.899    -2.047    -0.148     (0)  
   AlSiO5-3        3.442e-04   1.050e-05    -3.463    -4.979    -1.516     (0)  
   AlO2H           1.296e-09   1.296e-09    -8.887    -8.887     0.000     (0)  
   AlO+            6.572e-17   4.675e-17   -16.182   -16.330    -0.148     (0)  
   Al(OH)+2        4.791e-24   1.046e-24   -23.320   -23.980    -0.661     (0)  
   AlHSiO3+2       2.182e-28   4.765e-29   -27.661   -28.322    -0.661     (0)  
   Al+3            6.585e-32   4.963e-33   -31.181   -32.304    -1.123     (0)  
C(-4)         0.000e+00
   CH4             0.000e+00   0.000e+00  -131.144  -131.144     0.000     (0)  
C(4)          1.000e-03
   NaCO3-          7.002e-04   4.980e-04    -3.155    -3.303    -0.148     (0)  
   CO3-2           2.969e-04   8.000e-05    -3.527    -4.097    -0.569     (0)  
   CaCO3           2.715e-06   2.715e-06    -5.566    -5.566     0.000     (0)  
   HCO3-           1.240e-07   8.818e-08    -6.907    -7.055    -0.148     (0)  
   NaHCO3          1.657e-08   1.657e-08    -7.781    -7.781     0.000     (0)  
   Ca(HCO3)+       3.200e-11   2.276e-11   -10.495   -10.643    -0.148     (0)  
   CO2             1.038e-14   1.038e-14   -13.984   -13.984     0.000     (0)  
Ca            4.470e-04
   CaSiO3          2.786e-04   2.786e-04    -3.555    -3.555     0.000     (0)  
   Ca(OH)+         9.023e-05   6.418e-05    -4.045    -4.193    -0.148     (0)  
   Ca+2            7.536e-05   2.025e-05    -4.123    -4.694    -0.571     (0)  
   CaCO3           2.715e-06   2.715e-06    -5.566    -5.566     0.000     (0)  
   Ca(HSiO3)+      1.725e-07   1.227e-07    -6.763    -6.911    -0.148     (0)  
   Ca(HCO3)+       3.200e-11   2.276e-11   -10.495   -10.643    -0.148     (0)  
H(0)          3.373e-38
   H2              1.687e-38   1.687e-38   -37.773   -37.773     0.000     (0)  
Na            5.080e-01
   Na+             4.651e-01   3.342e-01    -0.332    -0.476    -0.144     (0)  
   NaOH            4.218e-02   4.218e-02    -1.375    -1.375     0.000     (0)  
   NaCO3-          7.002e-04   4.980e-04    -3.155    -3.303    -0.148     (0)  
   NaHCO3          1.657e-08   1.657e-08    -7.781    -7.781     0.000     (0)  
O(0)          4.343e-17
   O2              2.172e-17   2.172e-17   -16.663   -16.663     0.000     (0)  
Si            2.743e-03
   SiO3-2          1.583e-03   3.456e-04    -2.801    -3.461    -0.661     (0)  
   HSiO3-          5.375e-04   3.823e-04    -3.270    -3.418    -0.148     (0)  
   AlSiO5-3        3.442e-04   1.050e-05    -3.463    -4.979    -1.516     (0)  
   CaSiO3          2.786e-04   2.786e-04    -3.555    -3.555     0.000     (0)  
   Ca(HSiO3)+      1.725e-07   1.227e-07    -6.763    -6.911    -0.148     (0)  
   SiO2            1.290e-07   1.290e-07    -6.890    -6.890     0.000     (0)  
   Si4O10-4        9.776e-09   1.897e-11    -8.010   -10.722    -2.712     (0)  
   AlHSiO3+2       2.182e-28   4.765e-29   -27.661   -28.322    -0.661     (0)  

------------------------------Saturation indices-------------------------------

  Phase               SI** log IAP   log K(298 K,   1 atm)

  5CA               0.72     16.61   15.89  (CaO)1.25(SiO2)1(Al2O3)0.125(H2O)1.625
  5CNA             -0.22     23.02   23.24  (CaO)1.25(SiO2)1(Al2O3)0.125(Na2O)0.25(H2O)1.375
  AlOHam           -1.58    -15.34  -13.76  Al(OH)3
  AlOHmic          -0.67    -15.34  -14.67  Al(OH)3
  Amor-Sl          -4.18     -6.89   -2.71  SiO2
  Arg              -0.45     -8.79   -8.34  CaCO3
  C12A7          -119.34     47.85  167.20  (CaO)12(Al2O3)7
  C2AH65           -1.00     28.38   29.38  Ca2Al(OH)7(H2O)3
  C2AH7.5          -1.16     13.04   14.21  Ca2Al2(OH)10(H2O)2.5
  C2S              -1.61     36.86   38.47  (CaO)2SiO2
  C3A             -35.72     34.96   70.68  (CaO)3Al2O3
  C3AH6            -0.58     34.93   35.51  Ca3Al2O6(H2O)6
  C3AS0.41H5.18     3.17     32.11   28.94  Ca3Al2O6(SiO2)0.41(H2O)5.18
  C3AS0.84H4.32     3.36     29.15   25.79  AlCa3AlO6(SiO2)0.84(H2O)4.32
  C3S             -14.53     58.73   73.26  (CaO)3SiO2
  C4AH11           -3.72     56.77   60.49  Ca4Al2(OH)14(H2O)4
  C4AH13           -2.00     56.76   58.76  Ca4Al2(OH)14(H2O)6
  C4AH19           -1.83     56.73   58.56  Ca4Al2(OH)14(H2O)12
  CA               -8.48     -8.79   -0.31  CaOAl2O3
  CA2              -9.39    -39.45  -30.06  CaO(Al2O3)2
  CAH10            -1.25     -8.84   -7.59  CaOAl2O3(H2O)10
  Cal              -0.31     -8.79   -8.48  CaCO3
  CH4(g)         -128.28   -169.32  -41.04  CH4
  chabazite       -10.58    -36.38  -25.80  Ca(Al2Si4)O12(H2O)6
  CO2(g)          -12.52    -30.66  -18.14  CO2
  CSH3T-T2C         0.64     25.91   25.27  ((CaO)0.75(SiO2)0.5(H2O)1.25)2
  CSH3T-T5C         0.58     18.72   18.14  ((CaO)1(SiO2)1(H2O)2)1.25
  CSH3T-TobH       -1.00     11.53   12.53  (CaO)1(SiO2)1.5(H2O)2.5
  CSHQ-JenD        -0.53     28.20   28.73  (CaO)1.5(SiO2)0.6667(H2O)2.5
  CSHQ-JenH         0.08     22.26   22.18  (CaO)1.3333(SiO2)1(H2O)2.1667
  CSHQ-TobD        -0.03     13.63   13.66  ((CaO)1.25(SiO2)1(H2O)2.75)0.6667
  CSHQ-TobH        -0.60      7.69    8.29  (CaO)0.6667(SiO2)1(H2O)1.5
  ECSH1-NaSH       -0.39      5.02    5.41  ((NaOH)2.5SiO2H2O)0.2
  ECSH1-SH         -4.30     -6.90   -2.60  (SiO2H2O)1
  ECSH1-TobCa       0.31     11.33   11.02  ((Ca(OH)2)0.8333SiO2H2O)1
  ECSH2-JenCa       0.13     17.73   17.60  ((Ca(OH)2)1.6667SiO2H2O)0.6
  ECSH2-NaSH       -0.89      5.02    5.91  ((NaOH)2.5SiO2H2O)0.2
  ECSH2-TobCa       0.31     11.33   11.02  ((Ca(OH)2)0.8333SiO2H2O)1
  Gbs              -0.22    -15.34  -15.12  Al(OH)3
  Gr              -67.83    -99.99  -32.16  C
  H2(g)           -34.67    -34.67   -0.00  H2
  H2O(g)           -1.49     -0.01    1.49  H2O
  hemicarbonat10.5  -1.17     41.44   42.61  (CaO)3Al2O3(CaCO3)0.5(CaO2H2)0.5(H2O)10
  hemicarbonate     0.56     41.44   40.88  (CaO)3Al2O3(CaCO3)0.5(CaO2H2)0.5(H2O)11.5
  hemicarbonate9   -4.16     41.45   45.61  (CaO)3Al2O3(CaCO3)0.5(CaO2H2)0.5(H2O)8.5
  INFCA            -0.06      8.89    8.96  (CaO)1(SiO2)1.1875(Al2O3)0.15625(H2O)1.65625
  INFCN             0.78     19.54   18.76  (CaO)1(SiO2)1.5(Na2O)0.3125(H2O)1.1875
  INFCNA            0.47     17.70   17.23  (CaO)1(SiO2)1.1875(Al2O3)0.15625(Na2O)0.34375(H2O)1.3125
  Jennite           0.24     29.56   29.32  (SiO2)1(CaO)1.666667(H2O)2.1
  Kln              -6.13    -44.45  -38.32  Al2Si2O5(OH)4
  Lim             -10.71     21.87   32.59  CaO
  monocarbonate     1.57     26.11   24.54  Ca4Al2CO9(H2O)11
  monocarbonate05   0.79     13.05   12.27  Ca2AlC0.5O4.5(H2O)5.5
  monocarbonate9   -2.42     26.12   28.54  Ca4Al2CO9(H2O)9
  Na2O            -41.82     25.62   67.44  Na2O
  NaSiOH           -0.63      5.02    5.65  ((NaOH)2.5SiO2H2O)0.2
  natrolite         4.47    -25.73  -30.20  Na2(Al2Si3)O10(H2O)2
  O2(g)           -13.78     69.32   83.11  O2
  Portlandite      -0.93     21.87   22.80  Ca(OH)2
  Qtz              -3.14     -6.89   -3.75  SiO2
  straetlingite     2.04      6.15    4.11  Ca2Al2SiO7(H2O)8
  straetlingite5_5  -0.93      6.17    7.10  Ca2Al2SiO7(H2O)5.5
  straetlingite7    1.34      6.16    4.81  Ca2Al2SiO7(H2O)7
  T2C-CNASHss       0.34     25.91   25.57  (CaO)1.5(SiO2)1(H2O)2.5
  T5C-CNASHss       0.27     18.72   18.45  (CaO)1.25(SiO2)1.25(H2O)2.5
  Tob-I             0.45     27.20   26.75  (SiO2)2.4(CaO)2(H2O)3.2
  Tob-II            0.19     11.33   11.15  (SiO2)1(CaO)0.833333(H2O)1.333333
  TobH-CNASHss     -1.27     11.53   12.80  (CaO)1(SiO2)1.5(H2O)2.5
  tricarboalu03    -0.37      2.80    3.17  (CO3)Ca2Al0.6666667(OH)4(H2O)8.6666667
  zeoliteP_Ca      -2.29    -22.59  -20.30  Ca(Al2Si2)O8(H2O)4.5
  zeoliteX         -2.21    -22.31  -20.10  Na2(Al2Si2.5)O9(H2O)6.2
  zeoliteY         -7.65    -32.65  -25.00  Na2(Al2Si4)O12(H2O)8

**For a gas, SI = log10(fugacity). Fugacity = pressure * phi / 1 atm.
  For ideal gases, phi = 1.

------------------
End of simulation.
------------------

------------------------------------
Reading input data for simulation 4.
------------------------------------

-------------------------------
End of Run after 0.076 Seconds.
-------------------------------

