   Input file: C:\PHREEQC\my tests\SOL1-co2-CaCO3.pqi
  Output file: C:\PHREEQC\my tests\SOL1-co2-phcharge.pqo
Database file: C:\Program Files (x86)\USGS\Phreeqc Interactive 3.8.6-17100\database\CEMDATA18-31-03-2022-phaseVol.dat

------------------
Reading data base.
------------------

	SOLUTION_MASTER_SPECIES 
	SOLUTION_SPECIES 
	PHASES 
------------------------------------
Reading input data for simulation 1.
------------------------------------

	DATABASE C:\Program Files (x86)\USGS\Phreeqc Interactive 3.8.6-17100\database\CEMDATA18-31-03-2022-phaseVol.dat
	SOLUTION 1
	    temp      25.00
	    pH        13.10 charge 
	    units     mol/l
	    Na        0.50000
	    Si        0.00031
	    Al        0.00073
	    Ca        0.00233
	EQUILIBRIUM_PHASES 1
	    CO2(g)    -3.37   10
-------------------------------------------
Beginning of initial solution calculations.
-------------------------------------------

Initial solution 1.	

-----------------------------Solution composition------------------------------

	Elements           Molality       Moles

	Al                7.402e-04   7.402e-04
	Ca                2.363e-03   2.363e-03
	Na                5.070e-01   5.070e-01
	Si                3.143e-04   3.143e-04

----------------------------Description of solution----------------------------

                                       pH  =  13.571      Charge balance
                                       pe  =   4.000    
                        Activity of water  =   0.984
                 Ionic strength (mol/kgw)  =   4.362e-01
                       Mass of water (kg)  =   1.000e+00
                 Total alkalinity (eq/kg)  =   5.110e-01
                         Temperature (oC)  =  25.00
                  Electrical balance (eq)  =  -4.439e-15
 Percent error, 100*(Cat-|An|)/(Cat+|An|)  =  -0.00
                               Iterations  =   8
                                  Total H  = 1.115271e+02
                                  Total O  = 5.602117e+01

----------------------------Distribution of species----------------------------

                                               Log       Log       Log    mole V
   Species          Molality    Activity  Molality  Activity     Gamma   cm3/mol

   OH-             4.343e-01   3.664e-01    -0.362    -0.436    -0.074     (0)  
   H+              3.274e-14   2.685e-14   -13.485   -13.571    -0.086      0.00
   H2O             5.551e+01   9.839e-01     1.744    -0.007     0.000     18.07
Al            7.402e-04
   AlO2-           7.385e-04   5.199e-04    -3.132    -3.284    -0.152     (0)  
   AlSiO5-3        1.705e-06   4.330e-08    -5.768    -7.363    -1.595     (0)  
   AlO2H           3.904e-11   3.904e-11   -10.408   -10.408     0.000     (0)  
   AlO+            1.043e-18   7.343e-19   -17.982   -18.134    -0.152     (0)  
   Al(OH)+2        4.216e-26   8.540e-27   -25.375   -26.069    -0.693     (0)  
   AlHSiO3+2       3.701e-32   7.497e-33   -31.432   -32.125    -0.693     (0)  
   Al+3            3.040e-34   2.112e-35   -33.517   -34.675    -1.158     (0)  
Ca            2.363e-03
   Ca(OH)+         1.510e-03   1.063e-03    -2.821    -2.973    -0.152     (0)  
   Ca+2            6.811e-04   1.749e-04    -3.167    -3.757    -0.590     (0)  
   CaSiO3          1.712e-04   1.712e-04    -3.767    -3.767     0.000     (0)  
   Ca(HSiO3)+      5.563e-08   3.917e-08    -7.255    -7.407    -0.152     (0)  
H(0)          1.129e-38
   H2              5.646e-39   5.646e-39   -38.248   -38.248     0.000     (0)  
Na            5.070e-01
   Na+             4.325e-01   3.078e-01    -0.364    -0.512    -0.148     (0)  
   NaOH            7.452e-02   7.452e-02    -1.128    -1.128     0.000     (0)  
O(0)          3.849e-16
   O2              1.925e-16   1.925e-16   -15.716   -15.716     0.000     (0)  
Si            3.143e-04
   CaSiO3          1.712e-04   1.712e-04    -3.767    -3.767     0.000     (0)  
   SiO3-2          1.213e-04   2.458e-05    -3.916    -4.609    -0.693     (0)  
   HSiO3-          2.007e-05   1.413e-05    -4.697    -4.850    -0.152     (0)  
   AlSiO5-3        1.705e-06   4.330e-08    -5.768    -7.363    -1.595     (0)  
   Ca(HSiO3)+      5.563e-08   3.917e-08    -7.255    -7.407    -0.152     (0)  
   SiO2            2.486e-09   2.486e-09    -8.605    -8.605     0.000     (0)  
   Si4O10-4        2.567e-14   3.565e-17   -13.590   -16.448    -2.858     (0)  
   AlHSiO3+2       3.701e-32   7.497e-33   -31.432   -32.125    -0.693     (0)  

------------------------------Saturation indices-------------------------------

  Phase               SI** log IAP   log K(298 K,   1 atm)

  5CA               0.50     16.39   15.89  (CaO)1.25(SiO2)1(Al2O3)0.125(H2O)1.625
  5CNA             -0.32     22.92   23.24  (CaO)1.25(SiO2)1(Al2O3)0.125(Na2O)0.25(H2O)1.375
  AlOHam           -3.10    -16.86  -13.76  Al(OH)3
  AlOHmic          -2.19    -16.86  -14.67  Al(OH)3
  Amor-Sl          -5.89     -8.60   -2.71  SiO2
  C12A7          -122.58     44.61  167.20  (CaO)12(Al2O3)7
  C2AH65            0.48     29.86   29.38  Ca2Al(OH)7(H2O)3
  C2AH7.5          -1.21     13.00   14.21  Ca2Al2(OH)10(H2O)2.5
  C2S              -0.31     38.15   38.47  (CaO)2SiO2
  C3A             -34.25     36.43   70.68  (CaO)3Al2O3
  C3AH6             0.88     36.39   35.51  Ca3Al2O6(H2O)6
  C3AS0.41H5.18     3.93     32.87   28.94  Ca3Al2O6(SiO2)0.41(H2O)5.18
  C3AS0.84H4.32     3.39     29.17   25.79  AlCa3AlO6(SiO2)0.84(H2O)4.32
  C3S             -11.73     61.53   73.26  (CaO)3SiO2
  C4AH11           -0.76     59.73   60.49  Ca4Al2(OH)14(H2O)4
  C4AH13            0.96     59.72   58.76  Ca4Al2(OH)14(H2O)6
  C4AH19            1.11     59.67   58.56  Ca4Al2(OH)14(H2O)12
  CA              -10.02    -10.33   -0.31  CaOAl2O3
  CA2             -13.97    -44.03  -30.06  CaO(Al2O3)2
  CAH10            -2.80    -10.40   -7.59  CaOAl2O3(H2O)10
  chabazite       -18.99    -44.79  -25.80  Ca(Al2Si4)O12(H2O)6
  CSH3T-T2C         1.17     26.44   25.27  ((CaO)0.75(SiO2)0.5(H2O)1.25)2
  CSH3T-T5C         0.31     18.45   18.14  ((CaO)1(SiO2)1(H2O)2)1.25
  CSH3T-TobH       -2.08     10.45   12.53  (CaO)1(SiO2)1.5(H2O)2.5
  CSHQ-JenD         0.58     29.31   28.73  (CaO)1.5(SiO2)0.6667(H2O)2.5
  CSHQ-JenH         0.37     22.55   22.18  (CaO)1.3333(SiO2)1(H2O)2.1667
  CSHQ-TobD         0.08     13.73   13.66  ((CaO)1.25(SiO2)1(H2O)2.75)0.6667
  CSHQ-TobH        -1.32      6.97    8.29  (CaO)0.6667(SiO2)1(H2O)1.5
  ECSH1-NaSH       -0.61      4.80    5.41  ((NaOH)2.5SiO2H2O)0.2
  ECSH1-SH         -6.01     -8.61   -2.60  (SiO2H2O)1
  ECSH1-TobCa      -0.16     10.86   11.02  ((Ca(OH)2)0.8333SiO2H2O)1
  ECSH2-JenCa       0.60     18.20   17.60  ((Ca(OH)2)1.6667SiO2H2O)0.6
  ECSH2-NaSH       -1.11      4.80    5.91  ((NaOH)2.5SiO2H2O)0.2
  ECSH2-TobCa      -0.16     10.86   11.02  ((Ca(OH)2)0.8333SiO2H2O)1
  Gbs              -1.74    -16.86  -15.12  Al(OH)3
  H2(g)           -35.14    -35.14   -0.00  H2
  H2O(g)           -1.50     -0.01    1.49  H2O
  INFCA            -1.07      7.88    8.96  (CaO)1(SiO2)1.1875(Al2O3)0.15625(H2O)1.65625
  INFCN            -0.14     18.62   18.76  (CaO)1(SiO2)1.5(Na2O)0.3125(H2O)1.1875
  INFCNA           -0.37     16.86   17.23  (CaO)1(SiO2)1.1875(Al2O3)0.15625(Na2O)0.34375(H2O)1.3125
  Jennite           1.03     30.34   29.32  (SiO2)1(CaO)1.666667(H2O)2.1
  Kln             -12.60    -50.93  -38.32  Al2Si2O5(OH)4
  Lim              -9.21     23.38   32.59  CaO
  Na2O            -41.33     26.11   67.44  Na2O
  NaSiOH           -0.85      4.80    5.65  ((NaOH)2.5SiO2H2O)0.2
  natrolite        -3.22    -33.42  -30.20  Na2(Al2Si3)O10(H2O)2
  O2(g)           -12.84     70.27   83.11  O2
  Portlandite       0.57     23.37   22.80  Ca(OH)2
  Qtz              -4.86     -8.60   -3.75  SiO2
  straetlingite     0.28      4.39    4.11  Ca2Al2SiO7(H2O)8
  straetlingite5_5  -2.69      4.41    7.10  Ca2Al2SiO7(H2O)5.5
  straetlingite7   -0.41      4.40    4.81  Ca2Al2SiO7(H2O)7
  T2C-CNASHss       0.88     26.44   25.57  (CaO)1.5(SiO2)1(H2O)2.5
  T5C-CNASHss       0.00     18.45   18.45  (CaO)1.25(SiO2)1.25(H2O)2.5
  Tob-I            -0.67     26.08   26.75  (SiO2)2.4(CaO)2(H2O)3.2
  Tob-II           -0.28     10.87   11.15  (SiO2)1(CaO)0.833333(H2O)1.333333
  TobH-CNASHss     -2.35     10.45   12.80  (CaO)1(SiO2)1.5(H2O)2.5
  zeoliteP_Ca      -7.27    -27.57  -20.30  Ca(Al2Si2)O8(H2O)4.5
  zeoliteX         -9.05    -29.15  -20.10  Na2(Al2Si2.5)O9(H2O)6.2
  zeoliteY        -17.07    -42.07  -25.00  Na2(Al2Si4)O12(H2O)8

**For a gas, SI = log10(fugacity). Fugacity = pressure * phi / 1 atm.
  For ideal gases, phi = 1.

-----------------------------------------
Beginning of batch-reaction calculations.
-----------------------------------------

Reaction step 1.

Using solution 1.	
Using pure phase assemblage 1.	

-------------------------------Phase assemblage--------------------------------

                                                      Moles in assemblage
Phase               SI  log IAP  log K(T, P)   Initial       Final       Delta

CO2(g)           -3.37   -21.51    -18.14    1.000e+01   9.703e+00  -2.966e-01

-----------------------------Solution composition------------------------------

	Elements           Molality       Moles

	Al                7.374e-04   7.402e-04
	C                 2.954e-01   2.966e-01
	Ca                2.354e-03   2.363e-03
	Na                5.050e-01   5.070e-01
	Si                3.131e-04   3.143e-04

----------------------------Description of solution----------------------------

                                       pH  =   9.905      Charge balance
                                       pe  =  -3.797      Adjusted to redox equilibrium
                        Activity of water  =   0.989
                 Ionic strength (mol/kgw)  =   4.410e-01
                       Mass of water (kg)  =   1.004e+00
                 Total alkalinity (eq/kg)  =   5.090e-01
                       Total CO2 (mol/kg)  =   2.954e-01
                         Temperature (oC)  =  25.00
                  Electrical balance (eq)  =  -4.166e-14
 Percent error, 100*(Cat-|An|)/(Cat+|An|)  =  -0.00
                               Iterations  =  34
                                  Total H  = 1.115271e+02
                                  Total O  = 5.661430e+01

----------------------------Distribution of species----------------------------

                                               Log       Log       Log    mole V
   Species          Molality    Activity  Molality  Activity     Gamma   cm3/mol

   OH-             9.418e-05   7.948e-05    -4.026    -4.100    -0.074     (0)  
   H+              1.516e-10   1.244e-10    -9.819    -9.905    -0.086      0.00
   H2O             5.551e+01   9.888e-01     1.744    -0.005     0.000     18.07
Al            7.374e-04
   AlO2-           7.372e-04   5.187e-04    -3.132    -3.285    -0.153     (0)  
   AlO2H           1.805e-07   1.805e-07    -6.744    -6.744     0.000     (0)  
   AlSiO5-3        3.676e-09   9.241e-11    -8.435   -10.034    -1.600     (0)  
   AlO+            2.224e-11   1.565e-11   -10.653   -10.806    -0.153     (0)  
   Al(OH)+2        4.180e-15   8.432e-16   -14.379   -15.074    -0.695     (0)  
   AlHSiO3+2       1.676e-16   3.381e-17   -15.776   -16.471    -0.695     (0)  
   Al+3            1.390e-19   9.614e-21   -18.857   -20.017    -1.160     (0)  
C(-4)         6.477e-33
   CH4             6.477e-33   6.477e-33   -32.189   -32.189     0.000     (0)  
C(4)          2.954e-01
   NaCO3-          1.342e-01   9.445e-02    -0.872    -1.025    -0.153     (0)  
   CO3-2           7.701e-02   1.962e-02    -1.113    -1.707    -0.594     (0)  
   HCO3-           7.449e-02   5.207e-02    -1.128    -1.283    -0.156     (0)  
   NaHCO3          7.567e-03   7.567e-03    -2.121    -2.121     0.000     (0)  
   CaCO3           2.051e-03   2.051e-03    -2.688    -2.688     0.000     (0)  
   Ca(HCO3)+       5.883e-05   4.140e-05    -4.230    -4.383    -0.153     (0)  
   CO2             1.473e-05   1.473e-05    -4.832    -4.832     0.000     (0)  
Ca            2.354e-03
   CaCO3           2.051e-03   2.051e-03    -2.688    -2.688     0.000     (0)  
   Ca+2            2.434e-04   6.236e-05    -3.614    -4.205    -0.591     (0)  
   Ca(HCO3)+       5.883e-05   4.140e-05    -4.230    -4.383    -0.153     (0)  
   Ca(HSiO3)+      1.967e-07   1.384e-07    -6.706    -6.859    -0.153     (0)  
   CaSiO3          1.305e-07   1.305e-07    -6.884    -6.884     0.000     (0)  
   Ca(OH)+         1.169e-07   8.223e-08    -6.932    -7.085    -0.153     (0)  
H(0)          9.529e-16
   H2              4.764e-16   4.764e-16   -15.322   -15.322     0.000     (0)  
Na            5.050e-01
   Na+             3.632e-01   2.584e-01    -0.440    -0.588    -0.148     (0)  
   NaCO3-          1.342e-01   9.445e-02    -0.872    -1.025    -0.153     (0)  
   NaHCO3          7.567e-03   7.567e-03    -2.121    -2.121     0.000     (0)  
   NaOH            1.357e-05   1.357e-05    -4.867    -4.867     0.000     (0)  
O(0)          0.000e+00
   O2              0.000e+00   0.000e+00   -61.564   -61.564     0.000     (0)  
Si            3.131e-04
   HSiO3-          1.990e-04   1.400e-04    -3.701    -3.854    -0.153     (0)  
   SiO2            1.136e-04   1.136e-04    -3.945    -3.945     0.000     (0)  
   SiO3-2          2.606e-07   5.258e-08    -6.584    -7.279    -0.695     (0)  
   Ca(HSiO3)+      1.967e-07   1.384e-07    -6.706    -6.859    -0.153     (0)  
   CaSiO3          1.305e-07   1.305e-07    -6.884    -6.884     0.000     (0)  
   AlSiO5-3        3.676e-09   9.241e-11    -8.435   -10.034    -1.600     (0)  
   Si4O10-4        2.498e-10   3.403e-13    -9.602   -12.468    -2.866     (0)  
   AlHSiO3+2       1.676e-16   3.381e-17   -15.776   -16.471    -0.695     (0)  

------------------------------Saturation indices-------------------------------

  Phase               SI** log IAP   log K(298 K,   1 atm)

  5CA              -3.64     12.25   15.89  (CaO)1.25(SiO2)1(Al2O3)0.125(H2O)1.625
  5CNA             -6.33     16.91   23.24  (CaO)1.25(SiO2)1(Al2O3)0.125(Na2O)0.25(H2O)1.375
  AlOHam            0.56    -13.20  -13.76  Al(OH)3
  AlOHmic           1.47    -13.20  -14.67  Al(OH)3
  Amor-Sl          -1.23     -3.94   -2.71  SiO2
  Arg               2.42     -5.91   -8.34  CaCO3
  C12A7          -164.62      2.58  167.20  (CaO)12(Al2O3)7
  C2AH65          -11.40     17.98   29.38  Ca2Al(OH)7(H2O)3
  C2AH7.5          -9.42      4.79   14.21  Ca2Al2(OH)10(H2O)2.5
  C2S             -11.21     27.26   38.47  (CaO)2SiO2
  C3A             -50.25     20.43   70.68  (CaO)3Al2O3
  C3AH6           -15.11     20.40   35.51  Ca3Al2O6(H2O)6
  C3AS0.41H5.18   -10.15     18.78   28.94  Ca3Al2O6(SiO2)0.41(H2O)5.18
  C3AS0.84H4.32    -8.69     17.09   25.79  AlCa3AlO6(SiO2)0.84(H2O)4.32
  C3S             -30.40     42.86   73.26  (CaO)3SiO2
  C4AH11          -24.52     35.97   60.49  Ca4Al2(OH)14(H2O)4
  C4AH13          -22.80     35.96   58.76  Ca4Al2(OH)14(H2O)6
  C4AH19          -22.63     35.93   58.56  Ca4Al2(OH)14(H2O)12
  CA              -10.47    -10.78   -0.31  CaOAl2O3
  CA2              -7.09    -37.15  -30.06  CaO(Al2O3)2
  CAH10            -3.23    -10.82   -7.59  CaOAl2O3(H2O)10
  Cal               2.57     -5.91   -8.48  CaCO3
  CH4(g)          -29.32    -70.37  -41.04  CH4
  chabazite        -0.78    -26.58  -25.80  Ca(Al2Si4)O12(H2O)6
  CO2(g)           -3.37    -21.51  -18.14  CO2
  CSH3T-T2C        -5.83     19.44   25.27  ((CaO)0.75(SiO2)0.5(H2O)1.25)2
  CSH3T-T5C        -3.58     14.56   18.14  ((CaO)1(SiO2)1(H2O)2)1.25
  CSH3T-TobH       -2.86      9.67   12.53  (CaO)1(SiO2)1.5(H2O)2.5
  CSHQ-JenD        -7.97     20.76   28.73  (CaO)1.5(SiO2)0.6667(H2O)2.5
  CSHQ-JenH        -5.34     16.84   22.18  (CaO)1.3333(SiO2)1(H2O)2.1667
  CSHQ-TobD        -3.29     10.36   13.66  ((CaO)1.25(SiO2)1(H2O)2.75)0.6667
  CSHQ-TobH        -1.84      6.45    8.29  (CaO)0.6667(SiO2)1(H2O)1.5
  ECSH1-NaSH       -1.54      3.87    5.41  ((NaOH)2.5SiO2H2O)0.2
  ECSH1-SH         -1.35     -3.95   -2.60  (SiO2H2O)1
  ECSH1-TobCa      -1.98      9.05   11.02  ((Ca(OH)2)0.8333SiO2H2O)1
  ECSH2-JenCa      -4.38     13.23   17.60  ((Ca(OH)2)1.6667SiO2H2O)0.6
  ECSH2-NaSH       -2.04      3.87    5.91  ((NaOH)2.5SiO2H2O)0.2
  ECSH2-TobCa      -1.98      9.05   11.02  ((Ca(OH)2)0.8333SiO2H2O)1
  Gbs               1.93    -13.20  -15.12  Al(OH)3
  Gr              -13.78    -45.93  -32.16  C
  H2(g)           -12.22    -12.22   -0.00  H2
  H2O(g)           -1.49     -0.00    1.49  H2O
  hemicarbonat10.5 -17.39     25.22   42.61  (CaO)3Al2O3(CaCO3)0.5(CaO2H2)0.5(H2O)10
  hemicarbonate   -15.67     25.21   40.88  (CaO)3Al2O3(CaCO3)0.5(CaO2H2)0.5(H2O)11.5
  hemicarbonate9  -20.38     25.23   45.61  (CaO)3Al2O3(CaCO3)0.5(CaO2H2)0.5(H2O)8.5
  INFCA            -2.17      6.79    8.96  (CaO)1(SiO2)1.1875(Al2O3)0.15625(H2O)1.65625
  INFCN            -3.26     15.50   18.76  (CaO)1(SiO2)1.5(Na2O)0.3125(H2O)1.1875
  INFCNA           -4.04     13.19   17.23  (CaO)1(SiO2)1.1875(Al2O3)0.15625(Na2O)0.34375(H2O)1.3125
  Jennite          -7.27     22.05   29.32  (SiO2)1(CaO)1.666667(H2O)2.1
  Kln               4.05    -34.28  -38.32  Al2Si2O5(OH)4
  Lim             -16.99     15.60   32.59  CaO
  monocarbonate   -10.08     14.46   24.54  Ca4Al2CO9(H2O)11
  monocarbonate05  -5.04      7.23   12.27  Ca2AlC0.5O4.5(H2O)5.5
  monocarbonate9  -14.07     14.47   28.54  Ca4Al2CO9(H2O)9
  Na2O            -48.81     18.63   67.44  Na2O
  NaSiOH           -1.78      3.87    5.65  ((NaOH)2.5SiO2H2O)0.2
  natrolite        10.61    -19.59  -30.20  Na2(Al2Si3)O10(H2O)2
  O2(g)           -58.68     24.42   83.11  O2
  Portlandite      -7.20     15.60   22.80  Ca(OH)2
  Qtz              -0.20     -3.94   -3.75  SiO2
  straetlingite    -3.27      0.84    4.11  Ca2Al2SiO7(H2O)8
  straetlingite5_5  -6.24      0.85    7.10  Ca2Al2SiO7(H2O)5.5
  straetlingite7   -3.97      0.85    4.81  Ca2Al2SiO7(H2O)7
  T2C-CNASHss      -6.12     19.44   25.57  (CaO)1.5(SiO2)1(H2O)2.5
  T5C-CNASHss      -3.89     14.56   18.45  (CaO)1.25(SiO2)1.25(H2O)2.5
  Tob-I            -5.03     21.72   26.75  (SiO2)2.4(CaO)2(H2O)3.2
  Tob-II           -2.10      9.05   11.15  (SiO2)1(CaO)0.833333(H2O)1.333333
  TobH-CNASHss     -3.13      9.67   12.80  (CaO)1(SiO2)1.5(H2O)2.5
  tricarboalu03    -2.33      0.84    3.17  (CO3)Ca2Al0.6666667(OH)4(H2O)8.6666667
  zeoliteP_Ca       1.61    -18.69  -20.30  Ca(Al2Si2)O8(H2O)4.5
  zeoliteX          2.46    -17.64  -20.10  Na2(Al2Si2.5)O9(H2O)6.2
  zeoliteY          1.44    -23.56  -25.00  Na2(Al2Si4)O12(H2O)8

**For a gas, SI = log10(fugacity). Fugacity = pressure * phi / 1 atm.
  For ideal gases, phi = 1.

------------------
End of simulation.
------------------

------------------------------------
Reading input data for simulation 2.
------------------------------------

-------------------------------
End of Run after 0.099 Seconds.
-------------------------------

